Lista7/ieee14_Estimador de Estado WLS.txt
( TITULO DO CASO
TITU
**** Sistema IEEE de 14 barras ****     ieee14_CEEE
(DADOS ESPECÍFICOS P/ ESTIMAÇÃO DE ESTADOS:
(============================================================
(   0    |    1    |    2    |    3    |    4    |    5    |
(23456789012345678901234567890123456789012345678901234567890
( NB)( NL)(NIP)(NIQ)(NFP)(NFQ)(NMV)(PIP)(PIQ)(PFP)(PFQ)(PMV)(UTR)(PMU)     descrição: 0-não tem medida nem pseudo; 1-tem medida; 2-tem pseudo; 3-tem medida e pseudo
(  14   20   14   14   40   40   14    0    0    0    0    0   14   14                               
DBAR
( DADOS DE BARRAS CA PARA FLUXO DE CARGA E ESTIMAÇÃO DE ESTADOS (A PARTIR DA COLUNA 80)
(===============================================================================================================================================
(   0    |    1    |    2    |    3    |    4    |    5    |    6    |    7    |    8    |    9    |   10    |   11    |   12    |   13    |                                                       
(234567890123456789012345678901234567890123456789012345678901234567890123456789012345678901234567890123456789012345678901234567890112345678901
(No) O TB(   nome   )G( V)( A)( Pg)( Qg)( Qn)( Qm)( Bc)( Pl)( Ql)( Sh)(A(Vc)|||TP(  P  )(desP)TQ(  Q  )(desQ)TV(  V  )(desV)(UTR)( T )(PMU)  
   1   2  Bus_1  HV1  1060  0                            0.0  0.0      1      ( 1  232.4 0.033 1  -16.5 0.033 1   1060 0.033    1    0    1  
   2   1  Bus_2  HV1  1045     40.0      -40. 50.       21.7 12.7      1      ( 1  18.30 0.033 1   30.8 0.033 1   1045 0.033    2    0    2 
   3   1  Bus_3  HV1  1010      0.0        0. 40.       94.2 19.0      1      ( 1  -94.2 0.033 1    6.1 0.033 1   1010 0.033    3    0    3 
   4   0  Bus_4  HV1                                    47.8 -3.9      1      ( 1  -47.8 0.033 1    3.9 0.033 1   1018 0.033    4    0    4 
   5   0  Bus_5  HV1                                     7.6  1.6      1      ( 1   -7.6 0.033 1   -1.6 0.033 1   1020 0.033    5    0    5
   6   1  Bus_6  LV1  1070      0.0      -6.0 24.       11.2  7.5      1      ( 1  -11.2 0.033 1    5.2 0.033 1   1070 0.033    6    0    6 
   7   0  ficticia                                       0.0  0.0      1      ( 1    0.0 0.030 1    0.0 0.030 1   1062 0.033    7    0    7 
   8   1  Bus_8  TV1  1090      0.0      -6.0 24.        0.0  0.0      1      ( 1    0.0 0.033 1   17.6 0.033 1   1090 0.033    8    0    8 
   9   0  Bus_9  LV1                                    29.5 16.6 19.0 1      ( 1  -29.5 0.033 1  -16.6 0.033 1   1056 0.033    9    0    9 
  10   0  Bus_10 LV1                                     9.0  5.8      1      ( 1   -9.0 0.033 1   -5.8 0.033 1   1051 0.033   10    0   10 
  11   0  Bus_11 LV1                                     3.5  1.8      1      ( 1   -3.5 0.033 1   -1.8 0.033 1   1057 0.033   11    0   11 
  12   0  Bus_12 LV1                                     6.1  1.6      1      ( 1   -6.1 0.033 1   -1.6 0.033 1   1055 0.033   12    0   12 
  13   0  Bus_13 LV1                                    13.5  5.8      1      ( 1  -13.5 0.033 1   -5.8 0.033 1   1050 0.033   13    0   13 
  14   0  Bus_14 LV1                                    14.9  5.0      1      ( 1  -14.9 0.033 1   -5.0 0.033 1   1036 0.033   14    0   14 
9999
DLIN
( DADOS DE LINHAS CA PARA FLUXO DE CARGA E ESTIMAÇÃO DE ESTADOS (A PARTIR DA COLUNA 80)
(=============================================================================================================================================================================================
(   0    |    1    |    2    |    3    |    4    |    5    |    6    |    7    |    8    |    9    |   10    |   11    |   12    |   13    |   14    |   15    |   16    |   17    |   18    |                                                        
(234567890123456789012345678901234567890123456789012345678901234567890123456789012345678901234567890123456789012345678901234567890123456789012345678901234567890123456789012345678901234567890
(De) O  (Pa)NcEP ( R% )( X% )(MVAR)(Tap)(Tmn)(Tmx)(Phs)( Bc)(Cn)(Ce)     (k=>m)TP(  P  )(desP)TQ(  Q  )(desQ)(m=>k)TP(  P  )(desP)TQ(  Q  )(desQ)(k=>m)TC( PMU )(desC)(m=>k)TC( PMU )(desC)
   1       2 1    1.938 5.917  5.28                                           ( 1  156.9 0.033 1  -20.4 0.033       1 -152.6 0.033 1   27.7 0.033          
   1       5 1    5.40322.304  4.92                                           ( 1   75.5 0.033 1    3.9 0.033       1  -72.7 0.033 1    2.2 0.033          
   2       3 1    4.69919.797  4.38                                           ( 1   73.2 0.033 1    3.6 0.033       1  -70.9 0.033 1    1.6 0.033     
   2       4 1    5.81117.632  3.40                                           ( 1   56.1 0.033 1  -1.55 0.033       1  -54.5 0.033 1    3.0 0.033     
   2       5 1    5.69517.388  3.46                                           ( 1   41.5 0.033 1    1.2 0.033       1  -40.6 0.033 1   -2.1 0.033     
   3       4 1    6.70117.103  1.28                                           ( 1  -23.3 0.033 1    4.5 0.033       1   23.7 0.033 1   -4.8 0.033     
   4       5 1    1.335 4.211                                                 ( 1  -61.2 0.033 1   15.8 0.033       1   61.7 0.033 1  -14.2 0.033     
   4       7 1         20.912      0.978                                      ( 1   28.1 0.033 1   -9.7 0.033       1  -28.1 0.033 1   11.4 0.033     
   4       9 1         55.618      0.969                                      ( 1   16.1 0.033 1   -0.4 0.033       1  -16.1 0.033 1    1.7 0.033     
   5       6 1         25.202      0.932                                      ( 1   44.1 0.033 1   12.5 0.033       1  -44.1 0.033 1   -8.1 0.033     
   6      11 1    9.49819.890                                                 ( 1    7.4 0.033 1    3.6 0.033       1   -7.3 0.033 1   -3.4 0.033     
   6      12 1   12.29125.581                                                 ( 1    7.8 0.033 1    2.5 0.033       1   -7.7 0.033 1   -2.4 0.033     
   6      13 1    6.61513.027                                                 ( 1   17.7 0.033 1    7.2 0.033       1  -17.5 0.033 1   -6.8 0.033     
   7       8 1         17.615                                                 ( 1    0.0 0.033 1  -17.2 0.033       1    0.0 0.033 1   17.6 0.033     
   7       9 1         11.001                                                 ( 1   28.1 0.033 1    5.8 0.033       1  -28.1 0.033 1   -5.0 0.033     
   9      10 1    3.181 8.450                                                 ( 1    5.2 0.033 1    4.2 0.033       1   -5.2 0.033 1   -4.2 0.033     
   9      14 1   12.71127.038                                                 ( 1    9.4 0.033 1    3.6 0.033       1   -9.3 0.033 1   -3.4 0.033     
  10      11 1    8.20519.207                                                 ( 1   -3.8 0.033 1   -1.6 0.033       1    3.8 0.033 1    1.6 0.033     
  12      13 1   22.09219.988                                                 ( 1    1.6 0.033 1   0.75 0.033       1   -1.6 0.033 1  -0.74 0.033     
  13      14 1   17.09334.802                                                 ( 1    5.6 0.033 1    1.7 0.033       1   -5.6 0.033 1   -1.6 0.033     
9999
FIM
